<nodes>
    <node id="J1" x="0" y="0" type="traffic_light"/>
    <node id="J2" x="500" y="0" type="traffic_light"/>
    <node id="L" x="-500" y="0" type="priority"/>
    <node id="R" x="1000" y="0" type="priority"/>
    <node id="T1" x="0" y="200" type="priority"/>
    <node id="B1" x="0" y="-200" type="priority"/>
</nodes>