<routes>
    <vType id="car" accel="2.6" decel="4.5" length="5" maxSpeed="16.67" guiShape="passenger"/>
    <vType id="truck" accel="1.5" decel="3.5" length="12" maxSpeed="13.89" guiShape="truck" color="0.8,0.2,0.2"/>
    <vType id="bus" accel="1.8" decel="4.0" length="15" maxSpeed="13.89" guiShape="bus" color="0.2,0.2,0.8"/>

    <route id="route_LR" edges="L_to_J1 J1_to_J2 J2_to_R" />
    <route id="route_RL" edges="R_to_J2 J2_to_J1 J1_to_L" />
    <route id="route_T1_L" edges="T1_to_J1 J1_to_L" />
    <route id="route_B1_R" edges="B1_to_J1 J1_to_J2 J2_to_R" />

    <flow id="flow_LR" type="car" route="route_LR" begin="0" end="3600" probability="0.2" />
    <flow id="flow_RL" type="car" route="route_RL" begin="0" end="3600" probability="0.2" />
    <flow id="flow_T1_L" type="car" route="route_T1_L" begin="0" end="3600" probability="0.05" />
    <flow id="flow_B1_R" type="car" route="route_B1_R" begin="0" end="3600" probability="0.05" />
    <flow id="flow_LR_trucks" type="truck" route="route_LR" begin="0" end="3600" probability="0.02" />
    <flow id="flow_RL_buses" type="bus" route="route_RL" begin="0" end="3600" probability="0.01" />
</routes>